22
114_slab_only_top_up
Ti      1.995000   1.995000  24.049996 
Ti      1.995000   1.995000  19.974995
Ti      1.995000   1.995000  15.985014
Ti      1.995000   1.995000  11.994995
O       1.995000   1.995000  25.960005
O       1.995000   1.995000  21.969986
O       1.995000   1.995000  17.980005
O       1.995000   1.995000  13.989985
O       1.995000   1.995000  10.000004
O       1.995000   0.000000  23.965015
O       1.995000   0.000000  19.974995
O       1.995000   0.000000  15.985014
O       1.995000   0.000000  11.994995
O       0.000000   1.995000  23.965015
O       0.000000   1.995000  19.974995
O       0.000000   1.995000  15.985014
O       0.000000   1.995000  11.994995
Ba      0.000000   0.000000  25.960005
Ba      0.000000   0.000000  21.969986
Ba      0.000000   0.000000  17.980005
Ba      0.000000   0.000000  13.989985
Ba      0.000000   0.000000  10.000004
